# CIF file generated by openbabel 3.1.1, see https://openbabel.org
data_I
_chemical_name_common ''
_cell_length_a 3.83959
_cell_length_b 3.83959
_cell_length_c 3.83959
_cell_angle_alpha 60
_cell_angle_beta 60
_cell_angle_gamma 60
loop_
    _atom_site_label
    _atom_site_type_symbol
    _atom_site_fract_x
    _atom_site_fract_y
    _atom_site_fract_z
    _atom_site_occupancy
    Si0      Si       0.00000    0.00000    0.00000    1.000
    Si1      Si       0.25000    0.25000    0.25000    1.000
